56959087
  -OEChem-05222013422D

 99103  0     1  0  0  0  0  0999 V2000
   11.7577    7.9928    0.0000 O   0  0  0  0  0  0  0  0  0  0  0  0
   14.6824    6.2229    0.0000 O   0  0  0  0  0  0  0  0  0  0  0  0
   11.5263    5.5378    0.0000 O   0  0  0  0  0  0  0  0  0  0  0  0
   11.5263   10.3421    0.0000 O   0  0  0  0  0  0  0  0  0  0  0  0
   10.6603    3.0378    0.0000 O   0  0  0  0  0  0  0  0  0  0  0  0
    8.9282    1.0378    0.0000 O   0  0  0  0  0  0  0  0  0  0  0  0
    8.0622   -1.4622    0.0000 O   0  0  0  0  0  0  0  0  0  0  0  0
    6.3301   -3.4622    0.0000 O   0  0  0  0  0  0  0  0  0  0  0  0
    5.4641   -5.9622    0.0000 O   0  0  0  0  0  0  0  0  0  0  0  0
    3.7321   -7.9622    0.0000 O   0  0  0  0  0  0  0  0  0  0  0  0
    2.8660  -10.4621    0.0000 O   0  0  0  0  0  0  0  0  0  0  0  0
   15.6869    6.9889    0.0000 N   0  0  3  0  0  0  0  0  0  0  0  0
   13.2160    7.4644    0.0000 C   0  0  1  0  0  0  0  0  0  0  0  0
   14.0396    6.9889    0.0000 C   0  0  1  0  0  0  0  0  0  0  0  0
   14.8633    7.4644    0.0000 C   0  0  1  0  0  0  0  0  0  0  0  0
   12.3923    6.9889    0.0000 C   0  0  2  0  0  0  0  0  0  0  0  0
   13.7655    8.1619    0.0000 C   0  0  0  0  0  0  0  0  0  0  0  0
   13.2160    8.4155    0.0000 C   0  0  0  0  0  0  0  0  0  0  0  0
   14.0396    6.0378    0.0000 C   0  0  0  0  0  0  0  0  0  0  0  0
   12.3923    6.0378    0.0000 C   0  0  2  0  0  0  0  0  0  0  0  0
   14.8633    8.4155    0.0000 C   0  0  0  0  0  0  0  0  0  0  0  0
   13.2160    5.5623    0.0000 C   0  0  0  0  0  0  0  0  0  0  0  0
   15.1181    8.1619    0.0000 C   0  0  0  0  0  0  0  0  0  0  0  0
   14.0396    8.8911    0.0000 C   0  0  0  0  0  0  0  0  0  0  0  0
   12.3923    8.8911    0.0000 C   0  0  0  0  0  0  0  0  0  0  0  0
   16.3681    6.2568    0.0000 C   0  0  0  0  0  0  0  0  0  0  0  0
   14.0396    9.8421    0.0000 C   0  0  0  0  0  0  0  0  0  0  0  0
   12.3923    9.8421    0.0000 C   0  0  0  0  0  0  0  0  0  0  0  0
   13.2160   10.3177    0.0000 C   0  0  0  0  0  0  0  0  0  0  0  0
   11.5263    4.5378    0.0000 C   0  0  0  0  0  0  0  0  0  0  0  0
   17.3427    6.4806    0.0000 C   0  0  0  0  0  0  0  0  0  0  0  0
   10.6603    4.0378    0.0000 C   0  0  0  0  0  0  0  0  0  0  0  0
   18.0239    5.7485    0.0000 C   0  0  0  0  0  0  0  0  0  0  0  0
    9.7942    2.5378    0.0000 C   0  0  0  0  0  0  0  0  0  0  0  0
    9.7942    1.5378    0.0000 C   0  0  0  0  0  0  0  0  0  0  0  0
    8.9282    0.0378    0.0000 C   0  0  0  0  0  0  0  0  0  0  0  0
    8.0622   -0.4622    0.0000 C   0  0  0  0  0  0  0  0  0  0  0  0
    7.1962   -1.9622    0.0000 C   0  0  0  0  0  0  0  0  0  0  0  0
    7.1962   -2.9622    0.0000 C   0  0  0  0  0  0  0  0  0  0  0  0
    6.3301   -4.4622    0.0000 C   0  0  0  0  0  0  0  0  0  0  0  0
    5.4641   -4.9622    0.0000 C   0  0  0  0  0  0  0  0  0  0  0  0
    4.5981   -6.4622    0.0000 C   0  0  0  0  0  0  0  0  0  0  0  0
    4.5981   -7.4622    0.0000 C   0  0  0  0  0  0  0  0  0  0  0  0
    3.7320   -8.9622    0.0000 C   0  0  0  0  0  0  0  0  0  0  0  0
    2.8660   -9.4622    0.0000 C   0  0  0  0  0  0  0  0  0  0  0  0
    2.0000  -10.9621    0.0000 C   0  0  0  0  0  0  0  0  0  0  0  0
   15.1547    6.6660    0.0000 H   0  0  0  0  0  0  0  0  0  0  0  0
   11.5759    6.7525    0.0000 H   0  0  0  0  0  0  0  0  0  0  0  0
   13.9023    8.7666    0.0000 H   0  0  0  0  0  0  0  0  0  0  0  0
   13.2058    8.4287    0.0000 H   0  0  0  0  0  0  0  0  0  0  0  0
   14.2517    5.4552    0.0000 H   0  0  0  0  0  0  0  0  0  0  0  0
   14.6502    6.1455    0.0000 H   0  0  0  0  0  0  0  0  0  0  0  0
   12.3923    5.4178    0.0000 H   0  0  0  0  0  0  0  0  0  0  0  0
   15.4739    8.3079    0.0000 H   0  0  0  0  0  0  0  0  0  0  0  0
   15.0754    8.9981    0.0000 H   0  0  0  0  0  0  0  0  0  0  0  0
   12.8175    5.0874    0.0000 H   0  0  0  0  0  0  0  0  0  0  0  0
   13.6145    5.0874    0.0000 H   0  0  0  0  0  0  0  0  0  0  0  0
   15.7103    8.3457    0.0000 H   0  0  0  0  0  0  0  0  0  0  0  0
   15.0252    8.7749    0.0000 H   0  0  0  0  0  0  0  0  0  0  0  0
   14.7902    5.6123    0.0000 H   0  0  0  0  0  0  0  0  0  0  0  0
   15.8478    5.9197    0.0000 H   0  0  0  0  0  0  0  0  0  0  0  0
   16.6097    5.6858    0.0000 H   0  0  0  0  0  0  0  0  0  0  0  0
   14.5766   10.1521    0.0000 H   0  0  0  0  0  0  0  0  0  0  0  0
   13.2160   10.9377    0.0000 H   0  0  0  0  0  0  0  0  0  0  0  0
   11.7384    3.9552    0.0000 H   0  0  0  0  0  0  0  0  0  0  0  0
   12.1369    4.6455    0.0000 H   0  0  0  0  0  0  0  0  0  0  0  0
   17.5247    7.0733    0.0000 H   0  0  0  0  0  0  0  0  0  0  0  0
   11.5263   10.9621    0.0000 H   0  0  0  0  0  0  0  0  0  0  0  0
   10.4482    4.6204    0.0000 H   0  0  0  0  0  0  0  0  0  0  0  0
   10.0497    3.9302    0.0000 H   0  0  0  0  0  0  0  0  0  0  0  0
   17.8420    5.1558    0.0000 H   0  0  0  0  0  0  0  0  0  0  0  0
   18.6282    5.8873    0.0000 H   0  0  0  0  0  0  0  0  0  0  0  0
    9.5822    3.1204    0.0000 H   0  0  0  0  0  0  0  0  0  0  0  0
    9.1837    2.4302    0.0000 H   0  0  0  0  0  0  0  0  0  0  0  0
   10.0063    0.9552    0.0000 H   0  0  0  0  0  0  0  0  0  0  0  0
   10.4048    1.6455    0.0000 H   0  0  0  0  0  0  0  0  0  0  0  0
    9.1403   -0.5448    0.0000 H   0  0  0  0  0  0  0  0  0  0  0  0
    9.5388    0.1455    0.0000 H   0  0  0  0  0  0  0  0  0  0  0  0
    7.8501    0.1205    0.0000 H   0  0  0  0  0  0  0  0  0  0  0  0
    7.4516   -0.5698    0.0000 H   0  0  0  0  0  0  0  0  0  0  0  0
    6.9841   -1.3795    0.0000 H   0  0  0  0  0  0  0  0  0  0  0  0
    6.5856   -2.0698    0.0000 H   0  0  0  0  0  0  0  0  0  0  0  0
    7.4082   -3.5448    0.0000 H   0  0  0  0  0  0  0  0  0  0  0  0
    7.8067   -2.8545    0.0000 H   0  0  0  0  0  0  0  0  0  0  0  0
    6.5422   -5.0448    0.0000 H   0  0  0  0  0  0  0  0  0  0  0  0
    6.9407   -4.3545    0.0000 H   0  0  0  0  0  0  0  0  0  0  0  0
    5.2521   -4.3795    0.0000 H   0  0  0  0  0  0  0  0  0  0  0  0
    4.8535   -5.0698    0.0000 H   0  0  0  0  0  0  0  0  0  0  0  0
    4.3860   -5.8795    0.0000 H   0  0  0  0  0  0  0  0  0  0  0  0
    3.9875   -6.5698    0.0000 H   0  0  0  0  0  0  0  0  0  0  0  0
    4.8101   -8.0448    0.0000 H   0  0  0  0  0  0  0  0  0  0  0  0
    5.2087   -7.3545    0.0000 H   0  0  0  0  0  0  0  0  0  0  0  0
    3.9441   -9.5448    0.0000 H   0  0  0  0  0  0  0  0  0  0  0  0
    4.3426   -8.8545    0.0000 H   0  0  0  0  0  0  0  0  0  0  0  0
    2.6540   -8.8795    0.0000 H   0  0  0  0  0  0  0  0  0  0  0  0
    2.2554   -9.5698    0.0000 H   0  0  0  0  0  0  0  0  0  0  0  0
    1.6900  -10.4252    0.0000 H   0  0  0  0  0  0  0  0  0  0  0  0
    1.4631  -11.2721    0.0000 H   0  0  0  0  0  0  0  0  0  0  0  0
    2.3100  -11.4991    0.0000 H   0  0  0  0  0  0  0  0  0  0  0  0
  1 16  1  0  0  0  0
  1 25  1  0  0  0  0
 14  2  1  1  0  0  0
  2 60  1  0  0  0  0
 20  3  1  6  0  0  0
  3 30  1  0  0  0  0
  4 28  1  0  0  0  0
  4 68  1  0  0  0  0
  5 32  1  0  0  0  0
  5 34  1  0  0  0  0
  6 35  1  0  0  0  0
  6 36  1  0  0  0  0
  7 37  1  0  0  0  0
  7 38  1  0  0  0  0
  8 39  1  0  0  0  0
  8 40  1  0  0  0  0
  9 41  1  0  0  0  0
  9 42  1  0  0  0  0
 10 43  1  0  0  0  0
 10 44  1  0  0  0  0
 11 45  1  0  0  0  0
 11 46  1  0  0  0  0
 12 15  1  0  0  0  0
 12 23  1  0  0  0  0
 12 26  1  0  0  0  0
 13 14  1  0  0  0  0
 13 16  1  0  0  0  0
 13 17  1  1  0  0  0
 13 18  1  0  0  0  0
 14 15  1  0  0  0  0
 14 19  1  0  0  0  0
 15 21  1  0  0  0  0
 15 47  1  6  0  0  0
 16 20  1  0  0  0  0
 16 48  1  1  0  0  0
 17 23  1  0  0  0  0
 17 49  1  0  0  0  0
 17 50  1  0  0  0  0
 18 24  2  0  0  0  0
 18 25  1  0  0  0  0
 19 22  1  0  0  0  0
 19 51  1  0  0  0  0
 19 52  1  0  0  0  0
 20 22  1  0  0  0  0
 20 53  1  0  0  0  0
 21 24  1  0  0  0  0
 21 54  1  0  0  0  0
 21 55  1  0  0  0  0
 22 56  1  0  0  0  0
 22 57  1  0  0  0  0
 23 58  1  0  0  0  0
 23 59  1  0  0  0  0
 24 27  1  0  0  0  0
 25 28  2  0  0  0  0
 26 31  1  0  0  0  0
 26 61  1  0  0  0  0
 26 62  1  0  0  0  0
 27 29  2  0  0  0  0
 27 63  1  0  0  0  0
 28 29  1  0  0  0  0
 29 64  1  0  0  0  0
 30 32  1  0  0  0  0
 30 65  1  0  0  0  0
 30 66  1  0  0  0  0
 31 33  2  0  0  0  0
 31 67  1  0  0  0  0
 32 69  1  0  0  0  0
 32 70  1  0  0  0  0
 33 71  1  0  0  0  0
 33 72  1  0  0  0  0
 34 35  1  0  0  0  0
 34 73  1  0  0  0  0
 34 74  1  0  0  0  0
 35 75  1  0  0  0  0
 35 76  1  0  0  0  0
 36 37  1  0  0  0  0
 36 77  1  0  0  0  0
 36 78  1  0  0  0  0
 37 79  1  0  0  0  0
 37 80  1  0  0  0  0
 38 39  1  0  0  0  0
 38 81  1  0  0  0  0
 38 82  1  0  0  0  0
 39 83  1  0  0  0  0
 39 84  1  0  0  0  0
 40 41  1  0  0  0  0
 40 85  1  0  0  0  0
 40 86  1  0  0  0  0
 41 87  1  0  0  0  0
 41 88  1  0  0  0  0
 42 43  1  0  0  0  0
 42 89  1  0  0  0  0
 42 90  1  0  0  0  0
 43 91  1  0  0  0  0
 43 92  1  0  0  0  0
 44 45  1  0  0  0  0
 44 93  1  0  0  0  0
 44 94  1  0  0  0  0
 45 95  1  0  0  0  0
 45 96  1  0  0  0  0
 46 97  1  0  0  0  0
 46 98  1  0  0  0  0
 46 99  1  0  0  0  0
M  END
> <PUBCHEM_COMPOUND_CID>
56959087

> <PUBCHEM_COMPOUND_CANONICALIZED>
1

> <PUBCHEM_CACTVS_COMPLEXITY>
899

> <PUBCHEM_CACTVS_HBOND_ACCEPTOR>
12

> <PUBCHEM_CACTVS_HBOND_DONOR>
2

> <PUBCHEM_CACTVS_ROTATABLE_BOND>
24

> <PUBCHEM_CACTVS_SUBSKEYS>
AAADcfB+PAAAAAAAAAAAAAAAAAAAASAAAAA8YMEAAAAWAEjxAAAAHgAACAAADnzhmAYyBoMABgCAAiBCAACCCAAgIAAIiAAOiIgPJiKGsRuGeCOlwBGbuAfw8P8PoAABAAAYQADSAAaQADSgAAAAAAAAAA==

> <PUBCHEM_IUPAC_OPENEYE_NAME>
(4R,4aS,7S,7aR,12bS)-3-allyl-7-[2-[2-[2-[2-[2-[2-(2-methoxyethoxy)ethoxy]ethoxy]ethoxy]ethoxy]ethoxy]ethoxy]-1,2,4,5,6,7,7a,13-octahydro-4,12-methanobenzofuro[3,2-e]isoquinoline-4a,9-diol

> <PUBCHEM_IUPAC_CAS_NAME>
(4R,4aS,7S,7aR,12bS)-7-[2-[2-[2-[2-[2-[2-(2-methoxyethoxy)ethoxy]ethoxy]ethoxy]ethoxy]ethoxy]ethoxy]-3-prop-2-enyl-1,2,4,5,6,7,7a,13-octahydro-4,12-methanobenzofuro[3,2-e]isoquinoline-4a,9-diol

> <PUBCHEM_IUPAC_NAME_MARKUP>
(4<I>R</I>,4<I>a</I><I>S</I>,7<I>S</I>,7<I>a</I><I>R</I>,12<I>b</I><I>S</I>)-7-[2-[2-[2-[2-[2-[2-(2-methoxyethoxy)ethoxy]ethoxy]ethoxy]ethoxy]ethoxy]ethoxy]-3-prop-2-enyl-1,2,4,5,6,7,7<I>a</I>,13-octahydro-4,12-methanobenzofuro[3,2-e]isoquinoline-4<I>a</I>,9-diol

> <PUBCHEM_IUPAC_NAME>
(4R,4aS,7S,7aR,12bS)-7-[2-[2-[2-[2-[2-[2-(2-methoxyethoxy)ethoxy]ethoxy]ethoxy]ethoxy]ethoxy]ethoxy]-3-prop-2-enyl-1,2,4,5,6,7,7a,13-octahydro-4,12-methanobenzofuro[3,2-e]isoquinoline-4a,9-diol

> <PUBCHEM_IUPAC_SYSTEMATIC_NAME>
(4R,4aS,7S,7aR,12bS)-7-[2-[2-[2-[2-[2-[2-(2-methoxyethoxy)ethoxy]ethoxy]ethoxy]ethoxy]ethoxy]ethoxy]-3-prop-2-enyl-1,2,4,5,6,7,7a,13-octahydro-4,12-methanobenzofuro[3,2-e]isoquinoline-4a,9-diol

> <PUBCHEM_IUPAC_TRADITIONAL_NAME>
(4R,4aS,7S,7aR,12bS)-3-allyl-7-[2-[2-[2-[2-[2-[2-(2-methoxyethoxy)ethoxy]ethoxy]ethoxy]ethoxy]ethoxy]ethoxy]-1,2,4,5,6,7,7a,13-octahydro-4,12-methanobenzofuro[3,2-e]isoquinoline-4a,9-diol

> <PUBCHEM_IUPAC_INCHI>
InChI=1S/C34H53NO11/c1-3-9-35-10-8-33-30-26-4-5-27(36)31(30)46-32(33)28(6-7-34(33,37)29(35)25-26)45-24-23-44-22-21-43-20-19-42-18-17-41-16-15-40-14-13-39-12-11-38-2/h3-5,28-29,32,36-37H,1,6-25H2,2H3/t28-,29+,32-,33-,34+/m0/s1

> <PUBCHEM_IUPAC_INCHIKEY>
XNKCCCKFOQNXKV-ZRSCBOBOSA-N

> <PUBCHEM_XLOGP3>
-1

> <PUBCHEM_EXACT_MASS>
651.361862

> <PUBCHEM_MOLECULAR_FORMULA>
C34H53NO11

> <PUBCHEM_MOLECULAR_WEIGHT>
651.8

> <PUBCHEM_OPENEYE_CAN_SMILES>
COCCOCCOCCOCCOCCOCCOCCOC1CCC2(C3CC4=C5C2(C1OC5=C(C=C4)O)CCN3CC=C)O

> <PUBCHEM_OPENEYE_ISO_SMILES>
COCCOCCOCCOCCOCCOCCOCCO[C@H]1CC[C@]2([C@H]3CC4=C5[C@]2([C@H]1OC5=C(C=C4)O)CCN3CC=C)O

> <PUBCHEM_CACTVS_TPSA>
127

> <PUBCHEM_MONOISOTOPIC_WEIGHT>
651.361862

> <PUBCHEM_TOTAL_CHARGE>
0

> <PUBCHEM_HEAVY_ATOM_COUNT>
46

> <PUBCHEM_ATOM_DEF_STEREO_COUNT>
5

> <PUBCHEM_ATOM_UDEF_STEREO_COUNT>
0

> <PUBCHEM_BOND_DEF_STEREO_COUNT>
0

> <PUBCHEM_BOND_UDEF_STEREO_COUNT>
0

> <PUBCHEM_ISOTOPIC_ATOM_COUNT>
0

> <PUBCHEM_COMPONENT_COUNT>
1

> <PUBCHEM_CACTVS_TAUTO_COUNT>
-1

> <PUBCHEM_COORDINATE_TYPE>
1
5
255

> <PUBCHEM_BONDANNOTATIONS>
13  17  5
15  47  6
16  48  5
18  24  8
18  25  8
14  2  5
24  27  8
25  28  8
27  29  8
28  29  8
20  3  6

$$$$
